<?xml version="1.0" encoding="UTF-8"?>
<Package xmlns="http://soap.sforce.com/2006/04/metadata">
  <types>
    <members>Lead_CRM_Core_Subflow</members>
    <members>Lead_CRM_Core_Workflow_AfterQualification</members>
    <name>Flow</name>
  </types>
  <version>65.0</version>
</Package>
